     136
GEOMETRY FILE / created by CPMD
  H      0.716780753204      1.256010377958      2.460992790461              0.000011782650     -0.000065633219     -0.000144472917
  H      2.911296966124     -0.011078264061      2.461049597678              0.000009107891      0.000036120895     -0.000144052687
  H      5.105977133283      1.254985546228      2.461016132548              0.000012484731      0.000071580551     -0.000140916172
  H      7.300605787774     -0.011007635391      2.460987312524              0.000010079110      0.000033341107     -0.000141960018
  H      0.716771574320      3.788725246842      2.461081370203              0.000008018947      0.000061285146     -0.000148168459
  H      2.911309673403      2.522404304621      2.461134680057              0.000010714034     -0.000042434772     -0.000143030246
  H      5.105927508181      3.788850857090      2.461089159376              0.000008371189     -0.000029609904     -0.000146240749
  H      7.300757802825      2.522332440223      2.461101388539              0.000012310242     -0.000039795068     -0.000144075230
  C     -0.014534939102     -0.010527689496      6.124091350751              0.000251552524     -0.000599036170     -0.000062888466
  C     -0.014929261869     -0.010623122000      7.667944202096              0.000192903820     -0.000457549164      0.000671800100
  C     -0.013411468294     -0.010151181221     12.301338394059              0.000286661644     -0.000642584014     -0.000046360697
  C     -0.013250196614     -0.010880852724     13.846610888190              0.000138986625      0.000647984244      0.000087716174
  C     -0.017311996279     -0.010215838966     18.351336093125              0.000164909187     -0.000562184836      0.000426406100
  C      0.717576364502      1.256246459581      8.184526855540              0.000002140918     -0.000571931730     -0.000608572062
  C      0.715907411391      1.255575268163      3.569267661358              0.000152056259      0.000465197049     -0.000002769621
  C      0.719314658599      1.256165011908     14.359022608582              0.000042891552      0.000495095013     -0.000158173180
  C      0.716909834280      1.256310632634      9.727543397290              0.000300125651     -0.000573140858      0.000571762076
  C      0.716778402450      1.256481058460     15.916409011288              0.000205453645     -0.000572157569      0.000306796862
  C      1.448313948259     -0.011251101060      4.057472479369              0.000058131155      0.000567476758      0.000107924192
  C      1.447873055477     -0.011042691592      5.609614830651              0.000017431451      0.000551679190      0.000078329547
  C      1.449267897500     -0.010787094506     10.244061592396              0.000085115376      0.000487861853     -0.000769925205
  C      1.449191199261     -0.010683958419     11.787243453077              0.000015402626      0.000545711379      0.000099419230
  C      1.446424302240     -0.010754286115     16.406699992714             -0.000013113539      0.000536355917     -0.000915276320
  C      1.446755363451     -0.010312163054     18.080390162269              0.000032257510      0.000513265417      0.000447990625
  C      2.912099873697     -0.011098765597      8.184481354786              0.000034787817      0.000634600690     -0.000571275553
  C      2.180209692786      1.255803141674      6.124022070739              0.000042236073      0.000488829384     -0.000106626388
  C      2.179917714772      1.256089231803      7.667822569420             -0.000012925271     -0.000546269996      0.000768953802
  C      2.910549708987     -0.011265548178      3.569325632515              0.000000754589      0.000581070369     -0.000004252095
  C      2.914186487748     -0.010622736330     14.359635975144             -0.000017104828     -0.000332737680     -0.000080733461
  C      2.181742228877      1.256145949271     12.301615831988              0.000017902781      0.000461993305     -0.000068647223
  C      2.181523995875      1.256261234710     13.847151636777              0.000028299108     -0.000464279511      0.000088861493
  C      2.911787723442     -0.010956868735      9.727567914059             -0.000033995501      0.000570110121      0.000584885389
  C      2.177631698836      1.256667529911     18.355315255179             -0.000084005595     -0.000644315741      0.000408708473
  C      2.910748371284     -0.010607361560     15.917797884571              0.000084083976      0.000495827759      0.000277390961
  C      3.642972255087      1.255512781281      4.057429228723             -0.000001666309      0.000511473531      0.000111346208
  C      3.642409665516      1.255670631577      5.609425862209              0.000062728690      0.000502406208      0.000087065079
  C      3.644195289923      1.255993772892     10.244301546982              0.000009932564      0.000399870926     -0.000786753475
  C      3.644095070954      1.256048805709     11.787624503356              0.000001963550      0.000505213649      0.000048764352
  C      3.640409272441      1.255514343275     16.408953615656              0.000134316417      0.000644991794     -0.000533556371
  C      3.641663892595      1.256321269256     18.097232838071              0.000027386833      0.000558171638     -0.000296166643
  C      4.374989292383     -0.010608930684      6.124082728797              0.000025163097     -0.000566349200     -0.000099686215
  C      4.374646944005     -0.010739930802      7.667840056589             -0.000025985608     -0.000424583956      0.000720607542
  C      4.376340802867     -0.011077086645     12.301957776123              0.000011447332      0.000690926427     -0.000055266027
  C      4.376171334857     -0.010963036936     13.848084280047             -0.000002211853      0.000631157170      0.000009160050
  C      4.373827310831     -0.010238902445     18.356875178113             -0.000054091566     -0.000526255589      0.000609862252
  C      5.106907297204      1.256137937336      8.184555482451             -0.000013659218     -0.000542793505     -0.000601352350
  C      5.105246969132      1.255517677950      3.569296549917              0.000019449063      0.000507386684      0.000016435383
  C      5.108593180496      1.256471497945     14.360336787241              0.000015345438     -0.000551092314     -0.000092676197
  C      5.106484944308      1.255655248615      9.727579856458              0.000013050351      0.000620863806      0.000601291273
  C      5.106145196195      1.256222287472     15.920327054028             -0.000088335169      0.000394135503      0.000149076515
  C      5.837680610459     -0.011217312954      4.057500321803              0.000019894826      0.000548761227      0.000119860890
  C      5.837264043738     -0.011170037244      5.609539458973              0.000006664925      0.000581728292      0.000086017657
  C      5.838910712373     -0.010791142149     10.244112756498              0.000017056099     -0.000380452546     -0.000780437685
  C      5.838429073570     -0.010943422268     11.787239471335              0.000052221279      0.000609010333      0.000091914781
  C      5.836480441813     -0.010460284972     16.406812559379              0.000092226090     -0.000463955013     -0.000408392449
  C      5.835940158571     -0.010341416665     18.094144582450              0.000035423569     -0.000386304231     -0.000367701939
  C      7.301640231721     -0.010667601480      8.184285508641             -0.000173254973     -0.000449902767     -0.000489105241
  C      6.569518837093      1.255868941489      6.123886114769              0.000008339738     -0.000482262930     -0.000113130099
  C      6.569133072766      1.256164504491      7.667646084193              0.000008720374     -0.000574898766      0.000779265457
  C      7.299865974286     -0.011246276963      3.569265676314             -0.000017353112      0.000579031901      0.000008667095
  C      7.303557897387     -0.010710891827     14.359356004539             -0.000158306911      0.000583958352     -0.000110693397
  C      6.570584551159      1.255815631121     12.301641276456             -0.000005889358      0.000592687369     -0.000096483324
  C      6.570638354388      1.255749675128     13.847329897839             -0.000018031251      0.000627276338      0.000056488013
  C      7.301370352471     -0.010631546604      9.727484894523             -0.000056228771     -0.000461225432      0.000603166884
  C      6.566851910358      1.256345252778     18.357911390282              0.000202419163     -0.000480441418      0.000560924665
  C      7.301005113705     -0.010197432264     15.917209674713             -0.000014207915     -0.000553332960      0.000278075012
  C      8.032333758376      1.255456729564      4.057379018924             -0.000126693302      0.000542761236      0.000124973274
  C      8.031806041123      1.255707707958      5.609380468232             -0.000156378063      0.000477301192      0.000043384625
  C      8.033848267675      1.256169513632     10.244116140641             -0.000295710547     -0.000476369869     -0.000755889126
  C      8.033139625005      1.256612484534     11.787132498061             -0.000176449985     -0.000699035969      0.000079765616
  C      8.032222099557      1.256244129948     16.406202849215             -0.000295348596      0.000344128974     -0.000579499063
  C      8.029836543580      1.256272091467     18.091067295750             -0.000139585964      0.000515235733     -0.000128135075
  C     -0.014523727664      2.521960302194      6.123945944053              0.000213476663      0.000688110131     -0.000080551531
  C     -0.015239456074      2.522191755811      7.667652632512              0.000310868301      0.000588086571      0.000755570161
  C     -0.013158088439      2.522320849226     12.301592762145              0.000188754309      0.000727185644     -0.000093377487
  C     -0.013304968796      2.523008161961     13.846715149151              0.000134458596     -0.000551568135      0.000079121101
  C     -0.018192373600      2.522857905562     18.354327821216              0.000310708630      0.000599931150      0.000388602877
  C      0.717199138082      3.789110908541      8.184402894496              0.000089901401      0.000504137324     -0.000600606005
  C      0.715906148963      3.789067143944      3.569353993138              0.000131904418     -0.000471799578     -0.000034965319
  C      0.719498067078      3.789642749354     14.358822842201              0.000030000466     -0.000585967952     -0.000183610967
  C      0.716911677938      3.789208284370      9.727603777015              0.000203874440      0.000482734098      0.000495236407
  C      0.716460349430      3.789494608805     15.915616819262              0.000214125521      0.000537221391      0.000344907175
  C      1.448344599572      2.522320067216      4.057561406297              0.000022834363     -0.000458772408      0.000110889559
  C      1.447903238646      2.522422048109      5.609591065637              0.000041797655     -0.000434878408      0.000081509474
  C      1.449599986726      2.522578839416     10.244194893732             -0.000007191864     -0.000360851964     -0.000773446673
  C      1.449375235282      2.522817848628     11.787286307342              0.000037662443     -0.000461536681      0.000107188988
  C      1.446840989757      2.523191727229     16.407431395046             -0.000058232142     -0.000437032881     -0.000810979813
  C      1.446475416081      2.523092962568     18.087457618967             -0.000016064557     -0.000478545458      0.000253023274
  C      2.912228833010      2.522603006757      8.184553847612              0.000000498412     -0.000495689628     -0.000620739764
  C      2.180344331061      3.789368657546      6.124136855655             -0.000012324235     -0.000527595026     -0.000114605569
  C      2.179748819978      3.789150992799      7.667824138486              0.000002493780      0.000457276696      0.000754620196
  C      2.910581975593      2.522350187981      3.569414119210              0.000025230896     -0.000457113138      0.000004200824
  C      2.914168820674      2.522698648747     14.360021556785             -0.000036008185      0.000457036073     -0.000091197415
  C      2.181658212313      3.789701555931     12.301756970892             -0.000008127634     -0.000554769083     -0.000107884211
  C      2.181573883641      3.789416798819     13.847290586125              0.000010176521      0.000501086148      0.000055245446
  C      2.911888798538      2.522523403870      9.727594339785              0.000030555800     -0.000388223536      0.000598370218
  C      2.178359962154      3.789447515858     18.352629580110             -0.000220336170      0.000649270926      0.000476908170
  C      2.911497744786      2.522855715956     15.919056432072             -0.000055261994     -0.000407316872      0.000188050059
  C      3.643041885487      3.789177447335      4.057594055376              0.000017095154     -0.000536769557      0.000119177651
  C      3.642767722057      3.789339547153      5.609728804194             -0.000050207906     -0.000543462371      0.000041732014
  C      3.644166327838      3.789425726538     10.244134392718              0.000015513580     -0.000473766889     -0.000750482798
  C      3.643797164014      3.789678467571     11.787330277316              0.000036841822     -0.000542969974      0.000106237499
  C      3.640454186716      3.790437968630     16.408131264121              0.000179360011     -0.000695665174     -0.000542667260
  C      3.641971696537      3.789680719771     18.092543510308              0.000050610078     -0.000534481514     -0.000218986955
  C      4.374949157882      2.522041083055      6.124002829155              0.000000874316      0.000667845232     -0.000114304734
  C      4.374475959615      2.522266456841      7.667703904064              0.000029459547      0.000569398051      0.000805412102
  C      4.376257745366      2.523165437731     12.301886317218             -0.000002780346     -0.000580254428     -0.000064830620
  C      4.375978756861      2.522999138948     13.847861585015              0.000078787183     -0.000526278484      0.000047412343
  C      4.373424243587      2.522813294561     18.360851969072             -0.000087960167      0.000584192669      0.000510972444
  C      5.106818666389      3.789223718058      8.184390703379              0.000068911367      0.000457884429     -0.000593953241
  C      5.105229793247      3.789190452442      3.569363727033              0.000004510298     -0.000551397148     -0.000020774605
  C      5.108790685117      3.789234323022     14.360277032395              0.000011823021      0.000500177712     -0.000053600125
  C      5.106550843890      3.789746952490      9.727482642408             -0.000002734688     -0.000692850904      0.000571524394
  C      5.106210841257      3.789644137296     15.919721534067             -0.000061848522     -0.000422864550      0.000160554174
  C      5.837678416914      2.522377335982      4.057437488147             -0.000000693939     -0.000470351872      0.000109773517
  C      5.837257473244      2.522451395855      5.609527841584              0.000001771434     -0.000452810186      0.000049540840
  C      5.838685696896      2.522501712005     10.244125748918              0.000046002607      0.000505943199     -0.000753374664
  C      5.838557336468      2.522861858905     11.787467152961             -0.000034369916     -0.000458215042      0.000068580466
  C      5.836647139474      2.522803298574     16.408147321125             -0.000035865331      0.000584984524     -0.000392616995
  C      5.835742170848      2.522937312494     18.101075242329              0.000022783251      0.000411041653     -0.000511399100
  C      7.301843702772      2.522210388213      8.184485063055             -0.000290828790      0.000595631455     -0.000584750631
  C      6.569757587066      3.789185126266      6.124108233680             -0.000028812490      0.000400562933     -0.000123810088
  C      6.569393252767      3.789125868246      7.667846675519             -0.000047823203      0.000500313621      0.000746627023
  C      7.299977951991      2.522340839059      3.569376309998             -0.000023888275     -0.000449313917      0.000006073304
  C      7.303134919174      2.522759472436     14.359329697361             -0.000074143044     -0.000477011773     -0.000102754644
  C      6.570901956864      3.789859411612     12.301675233444              0.000017824883     -0.000641435268     -0.000092814690
  C      6.570680156359      3.789899880733     13.847435383997             -0.000026918418     -0.000669505127      0.000066610465
  C      7.301127532538      2.522316333146      9.727492279390             -0.000005054843      0.000588640892      0.000592350603
  C      6.567494767477      3.789600362843     18.354873175782              0.000047440401      0.000531044236      0.000641274515
  C      7.300935924593      2.522473914118     15.917932373836              0.000001565050      0.000663800487      0.000289275282
  C      8.032403871786      3.789240420985      4.057542910028             -0.000103620976     -0.000580054225      0.000126324486
  C      8.032199566392      3.789192583252      5.609676645859             -0.000257842270     -0.000453605767      0.000010121201
  C      8.033496747086      3.789371080146     10.243952901425             -0.000146464065      0.000385185720     -0.000694682931
  C      8.033465548790      3.789031582747     11.787181138682             -0.000264826628      0.000706566281      0.000036614534
  C      8.031666785372      3.789758398322     16.405260273698             -0.000178351929     -0.000391799825     -0.000579205503
  C      8.029974659037      3.789689653153     18.085512255115             -0.000070507430     -0.000502744226      0.000038852661
